artifacts/measurements/out_measurements_parameter_topology_physical_preview/models_topology/case_topology_corrected_pt_931789416866.m
function mpc = case_topology_corrected_pt_931789416866
mpc.version = '2';
mpc.baseMVA = 100;

mpc.bus = [
    1 3 0 0 0 0 1 1.06 0 135 1 2 0 0 0 0 0 0;
    2 2 21.7 12.7 0 0 1 1.045 -35.5822996685 135 1 2 0 0 0 0 0 0;
    3 2 94.2 19 0 0 1 1.01 -40.4745067856 135 1 2 0 0 0 0 0 0;
    4 1 47.8 -3.9 0 0 1 1.01407731987 -35.2113790817 135 1 2 0 0 0 0 0 0;
    5 1 7.6 1.6 0 0 1 1.00958009805 -31.6057393197 135 1 2 0 0 0 0 0 0;
    6 2 11.2 7.5 0 0 1 1.07 -38.2086978173 0.208 1 2 0 0 0 0 0 0;
    7 1 0 0 0 0 1 1.04828199893 -38.0295184301 14 1 2 0 0 0 0 0 0;
    8 2 0 0 0 0 1 1.09 -38.0295184301 12 1 2 0 0 0 0 0 0;
    9 1 29.5 16.6 0 19 1 1.04119742235 -39.4729887589 0.208 1 2 0 0 0 0 0 0;
    10 1 9 5.8 0 0 1 1.03861171661 -39.5325429019 0.208 1 2 0 0 0 0 0 0;
    11 1 3.5 1.8 0 0 1 1.05040981978 -38.996798614 0.208 1 2 0 0 0 0 0 0;
    12 1 6.1 1.6 0 0 1 1.05417857027 -39.1116985164 0.208 1 2 0 0 0 0 0 0;
    13 1 13.5 5.8 0 0 1 1.04806128558 -39.2185235127 0.208 1 2 0 0 0 0 0 0;
    14 1 14.9 5 0 0 1 1.02599087686 -40.3779663419 0.208 1 2 0 0 0 0 0 0;
];

mpc.gen = [
    1 259.28084308 29.5561464842 0 0 1.06 1 1 1000000000 -1000000000 0 0 0 0 0 0 0 0 0 0 0 0 0 0 0 1;
    2 40 66.364295125 1000000000 -1000000000 1.045 nan 1 1000000000 -1000000000 0 0 0 0 0 0 0 0 0 0 0 0 0 0 0 0;
    3 0 30.0241587162 2000000000 -2000000000 1.01 nan 1 2000000000 -2000000000 0 0 0 0 0 0 0 0 0 0 0 0 0 0 0 0;
    6 0 52.6145731211 1000000000 -1000000000 1.07 nan 1 1000000000 -1000000000 0 0 0 0 0 0 0 0 0 0 0 0 0 0 0 0;
    8 0 25.8147155046 1000000000 -1000000000 1.09 nan 1 1000000000 -1000000000 0 0 0 0 0 0 0 0 0 0 0 0 0 0 0 0;
];

mpc.branch = [
    1 5 0.05403 0.22304 0.0492 100 0 0 0 0 1 -360 360 259.28084308 29.5561464842 -226.451630792 100.693953645 0 0 0 0 0;
    2 3 0.04699 0.19797 0.0438 100 0 0 0 0 1 -360 360 47.629435022 6.72046881825 -46.617541581 -7.08289116761 0 0 0 0 0;
    2 4 0.05811 0.17632 0.034 100 0 0 0 0 1 -360 360 1.94241066745 15.8430085037 -1.77370208257 -18.9357475348 0 0 0 0 0;
    2 5 0.05695 0.17388 0.0346 100 0 0 0 0 1 -360 360 -31.2718456894 31.1008179196 32.3494223639 -31.4632650632 0 0 0 0 0;
    3 4 0.06701 0.17103 0.0128 100 0 0 0 0 1 -360 360 -47.582458419 18.1070499961 49.3009155962 -15.0320318735 0 0 0 0 0;
    4 5 0.01335 0.04211 0 100 0 0 0 0 1 -360 360 -134.427361255 58.2596442591 137.213918879 -49.4699857184 0 0 0 0 0;
    4 7 0 0.20912 -0 100 0 0 0 0 1 -360 360 24.9929968368 -15.9719649732 -24.9929968368 17.7609819499 0 0 0 0 0;
    4 9 0 0.55618 -0 100 0 0 0 0 1 -360 360 14.1071509048 -4.41989987752 -14.1071509048 5.60190271192 0 0 0 0 0;
    5 6 0 0.25202 -0 100 0 0 0 0 1 -360 360 49.2882895497 -21.3607028634 -49.2882895497 28.4956679084 0 0 0 0 0;
    6 11 0.09498 0.1989 0 100 0 0 0 0 1 -360 360 10.4479436275 5.60299556907 -10.3313418976 -5.35881696234 0 0 0 0 0;
    6 12 0.12291 0.25581 0 100 0 0 0 0 1 -360 360 8.25041766732 2.70842652253 -8.16946715321 -2.53994591872 0 0 0 0 0;
    6 13 0.06615 0.13027 0 100 0 0 0 0 1 -360 360 19.3899282549 8.30748312108 -19.1328257593 -7.80116804789 0 0 0 0 0;
    7 8 0 0.17615 -0 100 0 0 0 0 1 -360 360 -1.07168799244e-14 -24.8266985848 8.59834877232e-15 25.8147153964 0 0 0 0 0;
    7 9 0 0.11001 -0 100 0 0 0 0 1 -360 360 24.9929968368 7.06571663492 -24.9929968368 -6.39040277572 0 0 0 0 0;
    9 10 0.03181 0.0845 0 100 0 0 0 0 1 -360 360 2.21584463175 2.35260845001 -2.21277988296 -2.34446725941 0 0 0 0 0;
    9 14 0.12711 0.27038 0 100 0 0 0 0 1 -360 360 7.38430310982 2.43364098765 -7.3134247366 -2.28287319164 0 0 0 0 0;
    10 11 0.08205 0.19207 0 100 0 0 0 0 1 -360 360 -6.78722011704 -3.45553274059 6.83134189761 3.55881696234 0 0 0 0 0;
    12 13 0.22092 0.19988 0 100 0 0 0 0 1 -360 360 2.06946715321 0.939945918725 -2.05919699195 -0.930653868058 0 0 0 0 0;
    13 14 0.17093 0.34802 0 100 0 0 0 0 1 -360 360 7.6920227513 2.93182191595 -7.5865752634 -2.71712680836 0 0 0 0 0;
];

